Version 4
SHEET 1 880 680
WIRE 240 144 -80 144
WIRE 304 176 176 176
WIRE -80 208 -80 144
WIRE 240 224 240 144
WIRE 176 240 176 176
WIRE 208 240 176 240
WIRE 304 256 304 176
WIRE 304 256 272 256
WIRE 400 256 304 256
WIRE 112 272 32 272
WIRE 208 272 112 272
WIRE 400 304 400 256
WIRE -80 416 -80 272
WIRE 32 416 32 352
WIRE 32 416 -80 416
WIRE 192 416 32 416
WIRE 240 416 240 288
WIRE 240 416 192 416
WIRE 400 416 400 384
WIRE 400 416 240 416
FLAG 192 416 0
FLAG 400 256 y
FLAG 112 272 u
FLAG 240 144 V_C
SYMBOL cap -96 208 R0
SYMATTR InstName C1
SYMATTR Value 50µF
SYMBOL voltage 32 256 R0
SYMATTR InstName V1
SYMATTR Value SINE(0 3 20)
SYMBOL res 384 288 R0
SYMATTR InstName R1
SYMATTR Value 1k
SYMBOL Opamps/UniversalOpamp2 240 256 R0
SYMATTR InstName U1
TEXT 512 136 Left 2 !.ic V(V_C)=5
TEXT 512 96 Left 2 !.tran 0.0001 0.3
